Infrared Spectrum: 3-Octanone
Formula: C 8 H 16 O
CAS: 106-68-3
State: gas
Instrument: HP-GC/MS/IRD
Origin: NIST Mass Spectrometry Data Center
1/CM	ABSORBANCE
550	7.95e-05
562	9.45e-05
574	4.5e-05
586	5.25e-05
598	9.15e-05
610	6.9e-05
622	0.0001995
634	0.0001935
646	0.0001395
658	7.2e-05
670	4.5e-05
682	0.0001005
694	0.000156
706	0.00021
718	0.000306
730	0.0003195
742	0.0004035
754	0.000399
766	0.000339
778	0.000339
790	0.0002985
802	0.0002805
814	0.000306
826	0.000459
838	0.000375
850	0.0004005
862	0.00036
874	0.0002895
886	0.0003255
898	0.0003975
910	0.0005415
922	0.000735
934	0.0010275
946	0.0012255
958	0.001197
970	0.001101
982	0.001005
994	0.0007845
1006	0.0007875
1018	0.0011175
1030	0.001326
1042	0.0013335
1054	0.0010095
1066	0.0009315
1078	0.00096
1090	0.001374
1102	0.002037
1114	0.002202
1126	0.002277
1138	0.0022545
1150	0.0022335
1162	0.0021165
1174	0.0015375
1186	0.001185
1198	0.001197
1210	0.001251
1222	0.0010335
1234	0.000888
1246	0.0008565
1258	0.0008835
1270	0.0009285
1282	0.00099
1294	0.0010785
1306	0.0012135
1318	0.0015465
1330	0.0020895
1342	0.0027855
1354	0.002994
1366	0.0025215
1378	0.002118
1390	0.0018
1402	0.0015375
1414	0.001773
1426	0.0019845
1438	0.0021105
1450	0.0024945
1462	0.0029535
1474	0.002265
1486	0.001221
1498	0.00072
1510	0.000513
1522	0.000387
1534	0.000336
1546	0.000261
1558	0.000252
1570	0.0002385
1582	0.000219
1594	0.00021
1606	0.000243
1618	0.0002535
1630	0.0002565
1642	0.0003195
1654	0.000402
1666	0.0005445
1678	0.000927
1690	0.001701
1702	0.0036525
1714	0.007548
1726	0.0109635
1738	0.008349
1750	0.0035685
1762	0.0014025
1774	0.000714
1786	0.000414
1798	0.000297
1810	0.000213
1822	0.000168
1834	0.000117
1846	0.0001125
1858	0.0001035
1870	9.3e-05
1882	8.1e-05
1894	6.9e-05
1906	7.8e-05
1918	7.5e-05
1930	7.2e-05
1942	7.8e-05
1954	5.25e-05
1966	6e-05
1978	5.4e-05
1990	7.95e-05
2002	8.55e-05
2014	8.25e-05
2026	7.5e-05
2038	8.7e-05
2050	7.05e-05
2062	7.05e-05
2074	5.7e-05
2086	6.9e-05
2098	6.15e-05
2110	6.45e-05
2122	4.95e-05
2134	8.1e-05
2146	5.85e-05
2158	6.45e-05
2170	7.2e-05
2182	5.4e-05
2194	4.95e-05
2206	6e-05
2218	5.25e-05
2230	4.95e-05
2242	4.8e-05
2254	3.9e-05
2266	3.15e-05
2278	6e-05
2290	4.2e-05
2302	4.2e-05
2314	6e-05
2326	6e-05
2338	9.75e-05
2350	7.5e-05
2362	0.0001095
2374	7.95e-05
2386	6e-05
2398	3.9e-05
2410	3.45e-05
2422	3.9e-05
2434	1.5e-05
2446	1.5e-05
2458	2.7e-05
2470	2.55e-05
2482	9e-06
2494	4.5e-05
2506	1.2e-05
2518	4.35e-05
2530	5.25e-05
2542	4.2e-05
2554	3e-05
2566	4.2e-05
2578	5.25e-05
2590	2.25e-05
2602	5.1e-05
2614	7.35e-05
2626	9.15e-05
2638	7.5e-05
2650	0.0001275
2662	0.0001365
2674	0.000141
2686	0.000165
2698	0.000153
2710	0.0001935
2722	0.000213
2734	0.0002655
2746	0.0003555
2758	0.000345
2770	0.000378
2782	0.000411
2794	0.000573
2806	0.0007995
2818	0.001032
2830	0.0013335
2842	0.00201
2854	0.003468
2866	0.00537
2878	0.006684
2890	0.007302
2902	0.007818
2914	0.0095235
2926	0.012351
2938	0.01473
2950	0.0145365
2962	0.013584
2974	0.012237
2986	0.007929
2998	0.0043275
3010	0.002439
3022	0.001545
3034	0.001077
3046	0.000744
3058	0.0005865
3070	0.0004905
3082	0.0004335
3094	0.0003825
3106	0.0003495
3118	0.000309
3130	0.0002565
3142	0.0002265
3154	0.000234
3166	0.000198
3178	0.0001575
3190	0.0001485
3202	0.0001005
3214	3.3e-05
3226	5.25e-05
3238	3.15e-05
3250	6.3e-05
3262	4.65e-05
3274	4.5e-05
3286	8.1e-05
3298	4.5e-06
3310	1.95e-05
3322	4.35e-05
3334	8.55e-05
3346	5.4e-05
3358	6e-05
3370	7.8e-05
3382	0.000108
3394	5.4e-05
3406	0.0001455
3418	0.000186
3430	0.000246
3442	0.000267
3454	0.0001905
3466	9.75e-05
3478	7.65e-05
3490	7.35e-05
3502	7.5e-05
3514	5.55e-05
3526	4.8e-05
3538	3.45e-05
3550	5.55e-05
3562	4.35e-05
3574	6.3e-05
3586	7.8e-05
3598	4.35e-05
3610	3e-05
3622	7.35e-05
3634	7.95e-05
3646	7.8e-05
3658	8.85e-05
3670	6.75e-05
3682	9.9e-05
3694	5.1e-05
3706	0.0001185
3718	8.55e-05
3730	0.0001275
3742	0.000141
3754	0.0001245
3766	7.65e-05
3778	7.65e-05
3790	0.0001035
3802	0.0001155
3814	0.0001155
3826	7.8e-05
3838	0.000138
